<?xml version="1.0" encoding="UTF-8"?>

<!-- generated on Fri Apr 10 16:42:46 2020 by Eclipse SUMO netedit Version 1.1.0
<configuration xmlns:xsi="http://www.w3.org/2001/XMLSchema-instance" xsi:noNamespaceSchemaLocation="http://sumo.dlr.de/xsd/netconvertConfiguration.xsd">

    <input>
        <sumo-net-file value="/Users/leef/flow/tutorials/off_ramp_grid_turn_ramp200_pos350.net.xml"/>
    </input>

    <output>
        <output-file value="/Users/leef/flow/tutorials/off_ramp_grid_turn_ramp200_pos350.net.xml"/>
    </output>

    <processing>
        <geometry.max-grade.fix value="false"/>
        <offset.disable-normalization value="true"/>
        <lefthand value="false"/>
    </processing>

    <junctions>
        <no-turnarounds value="true"/>
        <junctions.corner-detail value="5"/>
        <junctions.limit-turn-speed value="5.5"/>
        <rectangular-lane-cut value="false"/>
    </junctions>

    <pedestrian>
        <walkingareas value="false"/>
    </pedestrian>

</configuration>
-->

<net version="1.1" junctionCornerDetail="5" limitTurnSpeed="5.50" xmlns:xsi="http://www.w3.org/2001/XMLSchema-instance" xsi:noNamespaceSchemaLocation="http://sumo.dlr.de/xsd/net_file.xsd">

    <location netOffset="500.00,500.00" convBoundary="200.00,200.00,1400.00,1100.00" origBoundary="-500.00,-500.00,1100.00,800.00" projParameter="!"/>

    <type id="horizontal" numLanes="1" speed="35.00"/>
    <type id="vertical" numLanes="1" speed="35.00"/>

    <edge id=":center0_0" function="internal">
        <lane id=":center0_0_0" index="0" speed="7.57" length="12.58" shape="495.20,512.60 494.71,509.19 493.25,506.75 490.81,505.29 487.40,504.80"/>
    </edge>
    <edge id=":center0_1" function="internal">
        <lane id=":center0_1_0" index="0" speed="35.00" length="25.20" shape="495.20,512.60 495.20,487.40"/>
        <lane id=":center0_1_1" index="1" speed="35.00" length="25.20" shape="498.40,512.60 498.40,487.40"/>
    </edge>
    <edge id=":center0_3" function="internal">
        <lane id=":center0_3_0" index="0" speed="10.57" length="9.28" shape="498.40,512.60 499.29,504.99 500.00,503.53"/>
    </edge>
    <edge id=":center0_4" function="internal">
        <lane id=":center0_4_0" index="0" speed="10.03" length="7.66" shape="498.40,512.60 499.29,506.39 500.00,505.20"/>
    </edge>
    <edge id=":center0_20" function="internal">
        <lane id=":center0_20_0" index="0" speed="10.57" length="16.25" shape="500.00,503.53 501.95,499.55 506.39,496.29 512.60,495.20"/>
    </edge>
    <edge id=":center0_21" function="internal">
        <lane id=":center0_21_0" index="0" speed="10.03" length="15.24" shape="500.00,505.20 501.95,501.95 506.39,499.29 512.60,498.40"/>
    </edge>
    <edge id=":center0_5" function="internal">
        <lane id=":center0_5_0" index="0" speed="7.57" length="12.58" shape="512.60,504.80 509.19,505.29 506.75,506.75 505.29,509.19 504.80,512.60"/>
    </edge>
    <edge id=":center0_6" function="internal">
        <lane id=":center0_6_0" index="0" speed="35.00" length="25.20" shape="512.60,504.80 487.40,504.80"/>
        <lane id=":center0_6_1" index="1" speed="35.00" length="25.20" shape="512.60,501.60 487.40,501.60"/>
    </edge>
    <edge id=":center0_8" function="internal">
        <lane id=":center0_8_0" index="0" speed="10.57" length="9.28" shape="512.60,501.60 504.99,500.71 503.53,500.00"/>
    </edge>
    <edge id=":center0_9" function="internal">
        <lane id=":center0_9_0" index="0" speed="10.03" length="7.66" shape="512.60,501.60 506.39,500.71 505.20,500.00"/>
    </edge>
    <edge id=":center0_22" function="internal">
        <lane id=":center0_22_0" index="0" speed="10.57" length="16.25" shape="503.53,500.00 499.55,498.05 496.29,493.61 495.20,487.40"/>
    </edge>
    <edge id=":center0_23" function="internal">
        <lane id=":center0_23_0" index="0" speed="10.03" length="15.24" shape="505.20,500.00 501.95,498.05 499.29,493.61 498.40,487.40"/>
    </edge>
    <edge id=":center0_10" function="internal">
        <lane id=":center0_10_0" index="0" speed="7.57" length="12.58" shape="504.80,487.40 505.29,490.81 506.75,493.25 509.19,494.71 512.60,495.20"/>
    </edge>
    <edge id=":center0_11" function="internal">
        <lane id=":center0_11_0" index="0" speed="35.00" length="25.20" shape="504.80,487.40 504.80,512.60"/>
        <lane id=":center0_11_1" index="1" speed="35.00" length="25.20" shape="501.60,487.40 501.60,512.60"/>
    </edge>
    <edge id=":center0_13" function="internal">
        <lane id=":center0_13_0" index="0" speed="10.57" length="9.28" shape="501.60,487.40 500.71,495.01 500.00,496.47"/>
    </edge>
    <edge id=":center0_14" function="internal">
        <lane id=":center0_14_0" index="0" speed="10.03" length="7.66" shape="501.60,487.40 500.71,493.61 500.00,494.80"/>
    </edge>
    <edge id=":center0_24" function="internal">
        <lane id=":center0_24_0" index="0" speed="10.57" length="16.25" shape="500.00,496.47 498.05,500.45 493.61,503.71 487.40,504.80"/>
    </edge>
    <edge id=":center0_25" function="internal">
        <lane id=":center0_25_0" index="0" speed="10.03" length="15.24" shape="500.00,494.80 498.05,498.05 493.61,500.71 487.40,501.60"/>
    </edge>
    <edge id=":center0_15" function="internal">
        <lane id=":center0_15_0" index="0" speed="7.57" length="12.58" shape="487.40,495.20 490.81,494.71 493.25,493.25 494.71,490.81 495.20,487.40"/>
    </edge>
    <edge id=":center0_16" function="internal">
        <lane id=":center0_16_0" index="0" speed="35.00" length="25.20" shape="487.40,495.20 512.60,495.20"/>
        <lane id=":center0_16_1" index="1" speed="35.00" length="25.20" shape="487.40,498.40 512.60,498.40"/>
    </edge>
    <edge id=":center0_18" function="internal">
        <lane id=":center0_18_0" index="0" speed="10.57" length="9.28" shape="487.40,498.40 495.01,499.29 496.47,500.00"/>
    </edge>
    <edge id=":center0_19" function="internal">
        <lane id=":center0_19_0" index="0" speed="10.03" length="7.66" shape="487.40,498.40 493.61,499.29 494.80,500.00"/>
    </edge>
    <edge id=":center0_26" function="internal">
        <lane id=":center0_26_0" index="0" speed="10.57" length="16.25" shape="496.47,500.00 500.45,501.95 503.71,506.39 504.80,512.60"/>
    </edge>
    <edge id=":center0_27" function="internal">
        <lane id=":center0_27_0" index="0" speed="10.03" length="15.24" shape="494.80,500.00 498.05,501.95 500.71,506.39 501.60,512.60"/>
    </edge>
    <edge id=":center1_0" function="internal">
        <lane id=":center1_0_0" index="0" speed="7.57" length="12.58" shape="1095.20,512.60 1094.71,509.19 1093.25,506.75 1090.81,505.29 1087.40,504.80"/>
    </edge>
    <edge id=":center1_1" function="internal">
        <lane id=":center1_1_0" index="0" speed="35.00" length="25.20" shape="1095.20,512.60 1095.20,487.40"/>
        <lane id=":center1_1_1" index="1" speed="35.00" length="25.20" shape="1098.40,512.60 1098.40,487.40"/>
    </edge>
    <edge id=":center1_3" function="internal">
        <lane id=":center1_3_0" index="0" speed="10.57" length="9.28" shape="1098.40,512.60 1099.29,504.99 1100.00,503.53"/>
    </edge>
    <edge id=":center1_4" function="internal">
        <lane id=":center1_4_0" index="0" speed="10.03" length="7.66" shape="1098.40,512.60 1099.29,506.39 1100.00,505.20"/>
    </edge>
    <edge id=":center1_20" function="internal">
        <lane id=":center1_20_0" index="0" speed="10.57" length="16.25" shape="1100.00,503.53 1101.95,499.55 1106.39,496.29 1112.60,495.20"/>
    </edge>
    <edge id=":center1_21" function="internal">
        <lane id=":center1_21_0" index="0" speed="10.03" length="15.24" shape="1100.00,505.20 1101.95,501.95 1106.39,499.29 1112.60,498.40"/>
    </edge>
    <edge id=":center1_5" function="internal">
        <lane id=":center1_5_0" index="0" speed="7.57" length="12.58" shape="1112.60,504.80 1109.19,505.29 1106.75,506.75 1105.29,509.19 1104.80,512.60"/>
    </edge>
    <edge id=":center1_6" function="internal">
        <lane id=":center1_6_0" index="0" speed="35.00" length="25.20" shape="1112.60,504.80 1087.40,504.80"/>
        <lane id=":center1_6_1" index="1" speed="35.00" length="25.20" shape="1112.60,501.60 1087.40,501.60"/>
    </edge>
    <edge id=":center1_8" function="internal">
        <lane id=":center1_8_0" index="0" speed="10.57" length="9.28" shape="1112.60,501.60 1104.99,500.71 1103.53,500.00"/>
    </edge>
    <edge id=":center1_9" function="internal">
        <lane id=":center1_9_0" index="0" speed="10.03" length="7.66" shape="1112.60,501.60 1106.39,500.71 1105.20,500.00"/>
    </edge>
    <edge id=":center1_22" function="internal">
        <lane id=":center1_22_0" index="0" speed="10.57" length="16.25" shape="1103.53,500.00 1099.55,498.05 1096.29,493.61 1095.20,487.40"/>
    </edge>
    <edge id=":center1_23" function="internal">
        <lane id=":center1_23_0" index="0" speed="10.03" length="15.24" shape="1105.20,500.00 1101.95,498.05 1099.29,493.61 1098.40,487.40"/>
    </edge>
    <edge id=":center1_10" function="internal">
        <lane id=":center1_10_0" index="0" speed="7.57" length="12.58" shape="1104.80,487.40 1105.29,490.81 1106.75,493.25 1109.19,494.71 1112.60,495.20"/>
    </edge>
    <edge id=":center1_11" function="internal">
        <lane id=":center1_11_0" index="0" speed="35.00" length="25.20" shape="1104.80,487.40 1104.80,512.60"/>
        <lane id=":center1_11_1" index="1" speed="35.00" length="25.20" shape="1101.60,487.40 1101.60,512.60"/>
    </edge>
    <edge id=":center1_13" function="internal">
        <lane id=":center1_13_0" index="0" speed="10.57" length="9.28" shape="1101.60,487.40 1100.71,495.01 1100.00,496.47"/>
    </edge>
    <edge id=":center1_14" function="internal">
        <lane id=":center1_14_0" index="0" speed="10.03" length="7.66" shape="1101.60,487.40 1100.71,493.61 1100.00,494.80"/>
    </edge>
    <edge id=":center1_24" function="internal">
        <lane id=":center1_24_0" index="0" speed="10.57" length="16.25" shape="1100.00,496.47 1098.05,500.45 1093.61,503.71 1087.40,504.80"/>
    </edge>
    <edge id=":center1_25" function="internal">
        <lane id=":center1_25_0" index="0" speed="10.03" length="15.24" shape="1100.00,494.80 1098.05,498.05 1093.61,500.71 1087.40,501.60"/>
    </edge>
    <edge id=":center1_15" function="internal">
        <lane id=":center1_15_0" index="0" speed="7.57" length="12.58" shape="1087.40,495.20 1090.81,494.71 1093.25,493.25 1094.71,490.81 1095.20,487.40"/>
    </edge>
    <edge id=":center1_16" function="internal">
        <lane id=":center1_16_0" index="0" speed="35.00" length="25.20" shape="1087.40,495.20 1112.60,495.20"/>
        <lane id=":center1_16_1" index="1" speed="35.00" length="25.20" shape="1087.40,498.40 1112.60,498.40"/>
    </edge>
    <edge id=":center1_18" function="internal">
        <lane id=":center1_18_0" index="0" speed="10.57" length="9.28" shape="1087.40,498.40 1095.01,499.29 1096.47,500.00"/>
    </edge>
    <edge id=":center1_19" function="internal">
        <lane id=":center1_19_0" index="0" speed="10.03" length="7.66" shape="1087.40,498.40 1093.61,499.29 1094.80,500.00"/>
    </edge>
    <edge id=":center1_26" function="internal">
        <lane id=":center1_26_0" index="0" speed="10.57" length="16.25" shape="1096.47,500.00 1100.45,501.95 1103.71,506.39 1104.80,512.60"/>
    </edge>
    <edge id=":center1_27" function="internal">
        <lane id=":center1_27_0" index="0" speed="10.03" length="15.24" shape="1094.80,500.00 1098.05,501.95 1100.71,506.39 1101.60,512.60"/>
    </edge>
    <edge id=":center2_0" function="internal">
        <lane id=":center2_0_0" index="0" speed="7.57" length="12.58" shape="495.20,812.60 494.71,809.19 493.25,806.75 490.81,805.29 487.40,804.80"/>
    </edge>
    <edge id=":center2_1" function="internal">
        <lane id=":center2_1_0" index="0" speed="35.00" length="25.20" shape="495.20,812.60 495.20,787.40"/>
        <lane id=":center2_1_1" index="1" speed="35.00" length="25.20" shape="498.40,812.60 498.40,787.40"/>
    </edge>
    <edge id=":center2_3" function="internal">
        <lane id=":center2_3_0" index="0" speed="10.57" length="9.28" shape="498.40,812.60 499.29,804.99 500.00,803.53"/>
    </edge>
    <edge id=":center2_4" function="internal">
        <lane id=":center2_4_0" index="0" speed="10.03" length="7.66" shape="498.40,812.60 499.29,806.39 500.00,805.20"/>
    </edge>
    <edge id=":center2_20" function="internal">
        <lane id=":center2_20_0" index="0" speed="10.57" length="16.25" shape="500.00,803.53 501.95,799.55 506.39,796.29 512.60,795.20"/>
    </edge>
    <edge id=":center2_21" function="internal">
        <lane id=":center2_21_0" index="0" speed="10.03" length="15.24" shape="500.00,805.20 501.95,801.95 506.39,799.29 512.60,798.40"/>
    </edge>
    <edge id=":center2_5" function="internal">
        <lane id=":center2_5_0" index="0" speed="7.57" length="12.58" shape="512.60,804.80 509.19,805.29 506.75,806.75 505.29,809.19 504.80,812.60"/>
    </edge>
    <edge id=":center2_6" function="internal">
        <lane id=":center2_6_0" index="0" speed="35.00" length="25.20" shape="512.60,804.80 487.40,804.80"/>
        <lane id=":center2_6_1" index="1" speed="35.00" length="25.20" shape="512.60,801.60 487.40,801.60"/>
    </edge>
    <edge id=":center2_8" function="internal">
        <lane id=":center2_8_0" index="0" speed="10.57" length="9.28" shape="512.60,801.60 504.99,800.71 503.53,800.00"/>
    </edge>
    <edge id=":center2_9" function="internal">
        <lane id=":center2_9_0" index="0" speed="10.03" length="7.66" shape="512.60,801.60 506.39,800.71 505.20,800.00"/>
    </edge>
    <edge id=":center2_22" function="internal">
        <lane id=":center2_22_0" index="0" speed="10.57" length="16.25" shape="503.53,800.00 499.55,798.05 496.29,793.61 495.20,787.40"/>
    </edge>
    <edge id=":center2_23" function="internal">
        <lane id=":center2_23_0" index="0" speed="10.03" length="15.24" shape="505.20,800.00 501.95,798.05 499.29,793.61 498.40,787.40"/>
    </edge>
    <edge id=":center2_10" function="internal">
        <lane id=":center2_10_0" index="0" speed="7.57" length="12.58" shape="504.80,787.40 505.29,790.81 506.75,793.25 509.19,794.71 512.60,795.20"/>
    </edge>
    <edge id=":center2_11" function="internal">
        <lane id=":center2_11_0" index="0" speed="35.00" length="25.20" shape="504.80,787.40 504.80,812.60"/>
        <lane id=":center2_11_1" index="1" speed="35.00" length="25.20" shape="501.60,787.40 501.60,812.60"/>
    </edge>
    <edge id=":center2_13" function="internal">
        <lane id=":center2_13_0" index="0" speed="10.57" length="9.28" shape="501.60,787.40 500.71,795.01 500.00,796.47"/>
    </edge>
    <edge id=":center2_14" function="internal">
        <lane id=":center2_14_0" index="0" speed="10.03" length="7.66" shape="501.60,787.40 500.71,793.61 500.00,794.80"/>
    </edge>
    <edge id=":center2_24" function="internal">
        <lane id=":center2_24_0" index="0" speed="10.57" length="16.25" shape="500.00,796.47 498.05,800.45 493.61,803.71 487.40,804.80"/>
    </edge>
    <edge id=":center2_25" function="internal">
        <lane id=":center2_25_0" index="0" speed="10.03" length="15.24" shape="500.00,794.80 498.05,798.05 493.61,800.71 487.40,801.60"/>
    </edge>
    <edge id=":center2_15" function="internal">
        <lane id=":center2_15_0" index="0" speed="7.57" length="12.58" shape="487.40,795.20 490.81,794.71 493.25,793.25 494.71,790.81 495.20,787.40"/>
    </edge>
    <edge id=":center2_16" function="internal">
        <lane id=":center2_16_0" index="0" speed="35.00" length="25.20" shape="487.40,795.20 512.60,795.20"/>
        <lane id=":center2_16_1" index="1" speed="35.00" length="25.20" shape="487.40,798.40 512.60,798.40"/>
    </edge>
    <edge id=":center2_18" function="internal">
        <lane id=":center2_18_0" index="0" speed="10.57" length="9.28" shape="487.40,798.40 495.01,799.29 496.47,800.00"/>
    </edge>
    <edge id=":center2_19" function="internal">
        <lane id=":center2_19_0" index="0" speed="10.03" length="7.66" shape="487.40,798.40 493.61,799.29 494.80,800.00"/>
    </edge>
    <edge id=":center2_26" function="internal">
        <lane id=":center2_26_0" index="0" speed="10.57" length="16.25" shape="496.47,800.00 500.45,801.95 503.71,806.39 504.80,812.60"/>
    </edge>
    <edge id=":center2_27" function="internal">
        <lane id=":center2_27_0" index="0" speed="10.03" length="15.24" shape="494.80,800.00 498.05,801.95 500.71,806.39 501.60,812.60"/>
    </edge>
    <edge id=":center3_0" function="internal">
        <lane id=":center3_0_0" index="0" speed="7.57" length="12.58" shape="1095.20,812.60 1094.71,809.19 1093.25,806.75 1090.81,805.29 1087.40,804.80"/>
    </edge>
    <edge id=":center3_1" function="internal">
        <lane id=":center3_1_0" index="0" speed="35.00" length="25.20" shape="1095.20,812.60 1095.20,787.40"/>
        <lane id=":center3_1_1" index="1" speed="35.00" length="25.20" shape="1098.40,812.60 1098.40,787.40"/>
    </edge>
    <edge id=":center3_3" function="internal">
        <lane id=":center3_3_0" index="0" speed="10.57" length="9.28" shape="1098.40,812.60 1099.29,804.99 1100.00,803.53"/>
    </edge>
    <edge id=":center3_4" function="internal">
        <lane id=":center3_4_0" index="0" speed="10.03" length="7.66" shape="1098.40,812.60 1099.29,806.39 1100.00,805.20"/>
    </edge>
    <edge id=":center3_20" function="internal">
        <lane id=":center3_20_0" index="0" speed="10.57" length="16.25" shape="1100.00,803.53 1101.95,799.55 1106.39,796.29 1112.60,795.20"/>
    </edge>
    <edge id=":center3_21" function="internal">
        <lane id=":center3_21_0" index="0" speed="10.03" length="15.24" shape="1100.00,805.20 1101.95,801.95 1106.39,799.29 1112.60,798.40"/>
    </edge>
    <edge id=":center3_5" function="internal">
        <lane id=":center3_5_0" index="0" speed="7.57" length="12.58" shape="1112.60,804.80 1109.19,805.29 1106.75,806.75 1105.29,809.19 1104.80,812.60"/>
    </edge>
    <edge id=":center3_6" function="internal">
        <lane id=":center3_6_0" index="0" speed="35.00" length="25.20" shape="1112.60,804.80 1087.40,804.80"/>
        <lane id=":center3_6_1" index="1" speed="35.00" length="25.20" shape="1112.60,801.60 1087.40,801.60"/>
    </edge>
    <edge id=":center3_8" function="internal">
        <lane id=":center3_8_0" index="0" speed="10.57" length="9.28" shape="1112.60,801.60 1104.99,800.71 1103.53,800.00"/>
    </edge>
    <edge id=":center3_9" function="internal">
        <lane id=":center3_9_0" index="0" speed="10.03" length="7.66" shape="1112.60,801.60 1106.39,800.71 1105.20,800.00"/>
    </edge>
    <edge id=":center3_22" function="internal">
        <lane id=":center3_22_0" index="0" speed="10.57" length="16.25" shape="1103.53,800.00 1099.55,798.05 1096.29,793.61 1095.20,787.40"/>
    </edge>
    <edge id=":center3_23" function="internal">
        <lane id=":center3_23_0" index="0" speed="10.03" length="15.24" shape="1105.20,800.00 1101.95,798.05 1099.29,793.61 1098.40,787.40"/>
    </edge>
    <edge id=":center3_10" function="internal">
        <lane id=":center3_10_0" index="0" speed="7.57" length="12.58" shape="1104.80,787.40 1105.29,790.81 1106.75,793.25 1109.19,794.71 1112.60,795.20"/>
    </edge>
    <edge id=":center3_11" function="internal">
        <lane id=":center3_11_0" index="0" speed="35.00" length="25.20" shape="1104.80,787.40 1104.80,812.60"/>
        <lane id=":center3_11_1" index="1" speed="35.00" length="25.20" shape="1101.60,787.40 1101.60,812.60"/>
    </edge>
    <edge id=":center3_13" function="internal">
        <lane id=":center3_13_0" index="0" speed="10.57" length="9.28" shape="1101.60,787.40 1100.71,795.01 1100.00,796.47"/>
    </edge>
    <edge id=":center3_14" function="internal">
        <lane id=":center3_14_0" index="0" speed="10.03" length="7.66" shape="1101.60,787.40 1100.71,793.61 1100.00,794.80"/>
    </edge>
    <edge id=":center3_24" function="internal">
        <lane id=":center3_24_0" index="0" speed="10.57" length="16.25" shape="1100.00,796.47 1098.05,800.45 1093.61,803.71 1087.40,804.80"/>
    </edge>
    <edge id=":center3_25" function="internal">
        <lane id=":center3_25_0" index="0" speed="10.03" length="15.24" shape="1100.00,794.80 1098.05,798.05 1093.61,800.71 1087.40,801.60"/>
    </edge>
    <edge id=":center3_15" function="internal">
        <lane id=":center3_15_0" index="0" speed="7.57" length="12.58" shape="1087.40,795.20 1090.81,794.71 1093.25,793.25 1094.71,790.81 1095.20,787.40"/>
    </edge>
    <edge id=":center3_16" function="internal">
        <lane id=":center3_16_0" index="0" speed="35.00" length="25.20" shape="1087.40,795.20 1112.60,795.20"/>
        <lane id=":center3_16_1" index="1" speed="35.00" length="25.20" shape="1087.40,798.40 1112.60,798.40"/>
    </edge>
    <edge id=":center3_18" function="internal">
        <lane id=":center3_18_0" index="0" speed="10.57" length="9.28" shape="1087.40,798.40 1095.01,799.29 1096.47,800.00"/>
    </edge>
    <edge id=":center3_19" function="internal">
        <lane id=":center3_19_0" index="0" speed="10.03" length="7.66" shape="1087.40,798.40 1093.61,799.29 1094.80,800.00"/>
    </edge>
    <edge id=":center3_26" function="internal">
        <lane id=":center3_26_0" index="0" speed="10.57" length="16.25" shape="1096.47,800.00 1100.45,801.95 1103.71,806.39 1104.80,812.60"/>
    </edge>
    <edge id=":center3_27" function="internal">
        <lane id=":center3_27_0" index="0" speed="10.03" length="15.24" shape="1094.80,800.00 1098.05,801.95 1100.71,806.39 1101.60,812.60"/>
    </edge>
    <edge id=":center4_0" function="internal">
        <lane id=":center4_0_0" index="0" speed="35.00" length="17.73" shape="753.00,504.80 735.27,504.80"/>
        <lane id=":center4_0_1" index="1" speed="35.00" length="17.73" shape="753.00,501.60 735.27,501.60"/>
    </edge>
    <edge id=":center4_2" function="internal">
        <lane id=":center4_2_0" index="0" speed="15.93" length="17.30" shape="737.47,488.60 740.39,490.90 743.57,493.02 747.58,494.59 753.00,495.20"/>
    </edge>
    <edge id=":center4_3" function="internal">
        <lane id=":center4_3_0" index="0" speed="35.00" length="17.73" shape="735.27,495.20 753.00,495.20"/>
        <lane id=":center4_3_1" index="1" speed="35.00" length="17.73" shape="735.27,498.40 753.00,498.40"/>
    </edge>

    <edge id="bot0_0" from="left_row_0" to="center0" priority="78" type="horizontal" length="300.00">
        <lane id="bot0_0_0" index="0" speed="35.00" length="300.00" shape="200.00,495.20 487.40,495.20"/>
        <lane id="bot0_0_1" index="1" speed="35.00" length="300.00" shape="200.00,498.40 487.40,498.40"/>
    </edge>
    <edge id="bot0_1" from="center0" to="center4" priority="78" type="horizontal" length="250.00">
        <lane id="bot0_1_0" index="0" speed="35.00" length="250.00" shape="512.60,495.20 735.27,495.20"/>
        <lane id="bot0_1_1" index="1" speed="35.00" length="250.00" shape="512.60,498.40 735.27,498.40"/>
    </edge>
    <edge id="bot0_2" from="center4" to="center1" priority="78" type="horizontal" length="350.00">
        <lane id="bot0_2_0" index="0" speed="35.00" length="350.00" shape="753.00,495.20 1087.40,495.20"/>
        <lane id="bot0_2_1" index="1" speed="35.00" length="350.00" shape="753.00,498.40 1087.40,498.40"/>
    </edge>
    <edge id="bot0_3" from="center1" to="right_row_0" priority="78" type="horizontal" length="300.00">
        <lane id="bot0_3_0" index="0" speed="35.00" length="300.00" shape="1112.60,495.20 1400.00,495.20"/>
        <lane id="bot0_3_1" index="1" speed="35.00" length="300.00" shape="1112.60,498.40 1400.00,498.40"/>
    </edge>
    <edge id="bot1_0" from="left_row_1" to="center2" priority="78" type="horizontal" length="300.00">
        <lane id="bot1_0_0" index="0" speed="35.00" length="300.00" shape="200.00,795.20 487.40,795.20"/>
        <lane id="bot1_0_1" index="1" speed="35.00" length="300.00" shape="200.00,798.40 487.40,798.40"/>
    </edge>
    <edge id="bot1_1" from="center2" to="center3" priority="78" type="horizontal">
        <lane id="bot1_1_0" index="0" speed="35.00" length="574.80" shape="512.60,795.20 1087.40,795.20"/>
        <lane id="bot1_1_1" index="1" speed="35.00" length="574.80" shape="512.60,798.40 1087.40,798.40"/>
    </edge>
    <edge id="bot1_2" from="center3" to="right_row_1" priority="78" type="horizontal" length="300.00">
        <lane id="bot1_2_0" index="0" speed="35.00" length="300.00" shape="1112.60,795.20 1400.00,795.20"/>
        <lane id="bot1_2_1" index="1" speed="35.00" length="300.00" shape="1112.60,798.40 1400.00,798.40"/>
    </edge>
    <edge id="left0_0" from="center0" to="bot_col_0" priority="78" type="vertical" length="300.00">
        <lane id="left0_0_0" index="0" speed="35.00" length="300.00" shape="495.20,487.40 495.20,200.00"/>
        <lane id="left0_0_1" index="1" speed="35.00" length="300.00" shape="498.40,487.40 498.40,200.00"/>
    </edge>
    <edge id="left0_1" from="center1" to="bot_col_1" priority="78" type="vertical" length="300.00">
        <lane id="left0_1_0" index="0" speed="35.00" length="300.00" shape="1095.20,487.40 1095.20,200.00"/>
        <lane id="left0_1_1" index="1" speed="35.00" length="300.00" shape="1098.40,487.40 1098.40,200.00"/>
    </edge>
    <edge id="left1_0" from="center2" to="center0" priority="78" type="vertical" length="300.00">
        <lane id="left1_0_0" index="0" speed="35.00" length="300.00" shape="495.20,787.40 495.20,512.60"/>
        <lane id="left1_0_1" index="1" speed="35.00" length="300.00" shape="498.40,787.40 498.40,512.60"/>
    </edge>
    <edge id="left1_1" from="center3" to="center1" priority="78" type="vertical" length="300.00">
        <lane id="left1_1_0" index="0" speed="35.00" length="300.00" shape="1095.20,787.40 1095.20,512.60"/>
        <lane id="left1_1_1" index="1" speed="35.00" length="300.00" shape="1098.40,787.40 1098.40,512.60"/>
    </edge>
    <edge id="left2_0" from="top_col_0" to="center2" priority="78" type="vertical" length="300.00">
        <lane id="left2_0_0" index="0" speed="35.00" length="300.00" shape="495.20,1100.00 495.20,812.60"/>
        <lane id="left2_0_1" index="1" speed="35.00" length="300.00" shape="498.40,1100.00 498.40,812.60"/>
    </edge>
    <edge id="left2_1" from="top_col_1" to="center3" priority="78" type="vertical" length="300.00">
        <lane id="left2_1_0" index="0" speed="35.00" length="300.00" shape="1095.20,1100.00 1095.20,812.60"/>
        <lane id="left2_1_1" index="1" speed="35.00" length="300.00" shape="1098.40,1100.00 1098.40,812.60"/>
    </edge>
    <edge id="ramp" from="off_ramp" to="center4" priority="78" type="vertical" length="200.00">
        <lane id="ramp_0" index="0" speed="35.00" length="200.00" shape="590.96,378.72 737.47,488.60"/>
    </edge>
    <edge id="right0_0" from="bot_col_0" to="center0" priority="78" type="vertical" length="300.00">
        <lane id="right0_0_0" index="0" speed="35.00" length="300.00" shape="504.80,200.00 504.80,487.40"/>
        <lane id="right0_0_1" index="1" speed="35.00" length="300.00" shape="501.60,200.00 501.60,487.40"/>
    </edge>
    <edge id="right0_1" from="bot_col_1" to="center1" priority="78" type="vertical" length="300.00">
        <lane id="right0_1_0" index="0" speed="35.00" length="300.00" shape="1104.80,200.00 1104.80,487.40"/>
        <lane id="right0_1_1" index="1" speed="35.00" length="300.00" shape="1101.60,200.00 1101.60,487.40"/>
    </edge>
    <edge id="right1_0" from="center0" to="center2" priority="78" type="vertical" length="300.00">
        <lane id="right1_0_0" index="0" speed="35.00" length="300.00" shape="504.80,512.60 504.80,787.40"/>
        <lane id="right1_0_1" index="1" speed="35.00" length="300.00" shape="501.60,512.60 501.60,787.40"/>
    </edge>
    <edge id="right1_1" from="center1" to="center3" priority="78" type="vertical" length="300.00">
        <lane id="right1_1_0" index="0" speed="35.00" length="300.00" shape="1104.80,512.60 1104.80,787.40"/>
        <lane id="right1_1_1" index="1" speed="35.00" length="300.00" shape="1101.60,512.60 1101.60,787.40"/>
    </edge>
    <edge id="right2_0" from="center2" to="top_col_0" priority="78" type="vertical" length="300.00">
        <lane id="right2_0_0" index="0" speed="35.00" length="300.00" shape="504.80,812.60 504.80,1100.00"/>
        <lane id="right2_0_1" index="1" speed="35.00" length="300.00" shape="501.60,812.60 501.60,1100.00"/>
    </edge>
    <edge id="right2_1" from="center3" to="top_col_1" priority="78" type="vertical" length="300.00">
        <lane id="right2_1_0" index="0" speed="35.00" length="300.00" shape="1104.80,812.60 1104.80,1100.00"/>
        <lane id="right2_1_1" index="1" speed="35.00" length="300.00" shape="1101.60,812.60 1101.60,1100.00"/>
    </edge>
    <edge id="top0_0" from="center0" to="left_row_0" priority="78" type="horizontal" length="300.00">
        <lane id="top0_0_0" index="0" speed="35.00" length="300.00" shape="487.40,504.80 200.00,504.80"/>
        <lane id="top0_0_1" index="1" speed="35.00" length="300.00" shape="487.40,501.60 200.00,501.60"/>
    </edge>
    <edge id="top0_1" from="center4" to="center0" priority="78" type="horizontal" length="250.00">
        <lane id="top0_1_0" index="0" speed="35.00" length="250.00" shape="735.27,504.80 512.60,504.80"/>
        <lane id="top0_1_1" index="1" speed="35.00" length="250.00" shape="735.27,501.60 512.60,501.60"/>
    </edge>
    <edge id="top0_2" from="center1" to="center4" priority="78" type="horizontal" length="350.00">
        <lane id="top0_2_0" index="0" speed="35.00" length="350.00" shape="1087.40,504.80 753.00,504.80"/>
        <lane id="top0_2_1" index="1" speed="35.00" length="350.00" shape="1087.40,501.60 753.00,501.60"/>
    </edge>
    <edge id="top0_3" from="right_row_0" to="center1" priority="78" type="horizontal" length="300.00">